Circuit: * C:\Users\hp\OneDrive\Documents\LTspiceXVII\acceleration measurement\acceleration_measurement_lab2.asc

Direct Newton iteration failed to find .op point.  (Use ".option noopiter" to skip.)
Starting Gmin stepping
Gmin = 10
vernier = 0.5
vernier = 0.25
vernier = 0.125
Gmin = 5.5165
vernier = 0.0625
vernier = 0.03125
vernier = 0.015625
vernier = 0.0078125
Gmin = 5.49501
vernier = 0.00390625
vernier = 0.00195313
vernier = 0.000976563
vernier = 0.000488281
Gmin = 5.50104
Gmin = 0
Gmin stepping failed

Starting source stepping with srcstepmethod=0
Source Step = 3.0303%
Source Step = 33.3333%
Source Step = 63.6364%
Source Step = 93.9394%
Source stepping succeeded in finding the operating point.


Date: Mon Nov 18 12:16:27 2024
Total elapsed time: 0.425 seconds.

tnom = 27
temp = 27
method = modified trap
totiter = 3893
traniter = 2100
tranpoints = 1051
accept = 1051
rejected = 0
matrix size = 111
fillins = 255
solver = Normal
Thread vector: 13.9/7.5[4] 3.1/2.0[4] 5.1/2.4[4] 0.5/0.7[1]  2592/500
Matrix Compiler1: 22.43 KB object code size  3.3/1.7/[0.8]
Matrix Compiler2: 13.82 KB object code size  2.8/2.4/[0.7]

