Circuit: * C:\Users\hp\OneDrive\Documents\LTspiceXVII\acceleration measurement\acceleration_measurement_lab2_draft2.asc

WARNING: Less than two connections to node VIN_MAX.  This node is used by V8.
Direct Newton iteration failed to find .op point.  (Use ".option noopiter" to skip.)
Starting Gmin stepping
Gmin = 10
vernier = 0.5
vernier = 0.25
vernier = 0.125
Gmin = 5.5165
vernier = 0.0625
vernier = 0.03125
vernier = 0.015625
vernier = 0.0078125
Gmin = 5.49501
vernier = 0.00390625
vernier = 0.00195313
vernier = 0.000976563
vernier = 0.000488281
Gmin = 5.50104
Gmin = 0
Gmin stepping failed

Starting source stepping with srcstepmethod=0
Source Step = 3.0303%
Source Step = 33.3333%
Source Step = 63.6364%
Source Step = 93.9394%
Source stepping succeeded in finding the operating point.


Date: Fri Nov 29 21:02:08 2024
Total elapsed time: 0.405 seconds.

tnom = 27
temp = 27
method = trap
totiter = 1814
traniter = 0
tranpoints = 0
accept = 0
rejected = 0
matrix size = 113
fillins = 262
solver = Normal
Matrix Compiler1:    1207 opcodes
Matrix Compiler2: 14.14 KB object code size  1.5/2.0/[0.6]

